Version 4
SHEET 1 1280 680
WIRE -336 -1360 -384 -1360
WIRE -224 -1360 -336 -1360
WIRE -336 -1312 -336 -1360
WIRE -224 -1312 -224 -1360
WIRE -336 -1200 -336 -1232
WIRE -336 -1200 -384 -1200
WIRE -224 -1200 -224 -1248
WIRE -224 -1200 -336 -1200
WIRE -336 -1168 -336 -1200
WIRE -640 -976 -672 -976
WIRE -496 -976 -560 -976
WIRE -304 -976 -496 -976
WIRE -1104 -960 -1152 -960
WIRE -912 -960 -1024 -960
WIRE -816 -960 -912 -960
WIRE -496 -960 -496 -976
WIRE -912 -928 -912 -960
WIRE -816 -864 -816 -960
WIRE -672 -864 -672 -976
WIRE -672 -864 -816 -864
WIRE -640 -864 -672 -864
WIRE -496 -864 -496 -896
WIRE -496 -864 -560 -864
WIRE -448 -864 -496 -864
WIRE -912 -848 -912 -864
WIRE -304 -848 -304 -976
WIRE -304 -848 -384 -848
WIRE -256 -848 -304 -848
WIRE -64 -848 -192 -848
WIRE -448 -832 -496 -832
WIRE -1104 -768 -1152 -768
WIRE -912 -768 -1024 -768
WIRE -496 -768 -496 -832
WIRE -496 -768 -912 -768
WIRE -416 -768 -416 -816
WIRE -912 -736 -912 -768
WIRE -2064 -672 -2144 -672
WIRE -1776 -672 -1984 -672
WIRE -912 -656 -912 -672
WIRE -1888 -624 -2000 -624
WIRE -656 -576 -688 -576
WIRE -512 -576 -576 -576
WIRE -320 -576 -512 -576
WIRE -2144 -560 -2144 -672
WIRE -2064 -560 -2144 -560
WIRE -1776 -560 -1984 -560
WIRE -512 -560 -512 -576
WIRE -1888 -512 -2000 -512
WIRE -2320 -496 -2496 -496
WIRE -2144 -496 -2144 -560
WIRE -2144 -496 -2240 -496
WIRE -2496 -480 -2496 -496
WIRE -976 -464 -1120 -464
WIRE -784 -464 -896 -464
WIRE -688 -464 -688 -576
WIRE -688 -464 -784 -464
WIRE -656 -464 -688 -464
WIRE -512 -464 -512 -496
WIRE -512 -464 -576 -464
WIRE -464 -464 -512 -464
WIRE -2144 -448 -2144 -496
WIRE -2064 -448 -2144 -448
WIRE -1776 -448 -1984 -448
WIRE -320 -448 -320 -576
WIRE -320 -448 -400 -448
WIRE -272 -448 -320 -448
WIRE -64 -448 -208 -448
WIRE -784 -432 -784 -464
WIRE -464 -432 -512 -432
WIRE -1888 -400 -2000 -400
WIRE -512 -368 -512 -432
WIRE -512 -368 -688 -368
WIRE -432 -368 -432 -416
WIRE -784 -352 -784 -368
WIRE -2144 -336 -2144 -448
WIRE -2064 -336 -2144 -336
WIRE -1776 -336 -1984 -336
WIRE -1888 -288 -2000 -288
WIRE -976 -272 -1120 -272
WIRE -784 -272 -896 -272
WIRE -688 -272 -688 -368
WIRE -688 -272 -784 -272
WIRE -784 -240 -784 -272
WIRE -784 -160 -784 -176
WIRE -2416 176 -2528 176
WIRE -1600 176 -1712 176
WIRE -2528 208 -2528 176
WIRE -1712 208 -1712 176
WIRE -2416 368 -2528 368
WIRE -1600 368 -1712 368
WIRE -2528 400 -2528 368
WIRE -1712 400 -1712 368
FLAG -2048 -624 0
FLAG -2048 -512 0
FLAG -2048 -400 0
FLAG -2048 -288 0
FLAG -2496 -480 0
FLAG -1888 -624 V_0_deg
FLAG -1888 -512 V_90_deg
FLAG -1888 -400 V_180_deg
FLAG -1888 -288 V_270_deg
FLAG -2528 288 0
FLAG -2416 176 V_0_deg
FLAG -2528 480 0
FLAG -2416 368 V_90_deg
FLAG -1712 288 0
FLAG -1600 176 V_180_deg
FLAG -1712 480 0
FLAG -1600 368 V_270_deg
FLAG -1776 -672 00
FLAG -1776 -448 11
FLAG -784 -160 0
FLAG -784 -352 0
FLAG -1776 -560 01
FLAG -1776 -336 10
FLAG -912 -656 0
FLAG -912 -848 0
FLAG -1152 -768 11
FLAG -1152 -960 00
FLAG -1120 -272 10
FLAG -1120 -464 01
FLAG -336 -1168 0
FLAG -384 -1360 V+
IOPIN -384 -1360 Out
FLAG -384 -1200 V-
IOPIN -384 -1200 Out
FLAG -416 -880 V+
IOPIN -416 -880 In
FLAG -432 -480 V+
IOPIN -432 -480 In
FLAG -416 -768 V-
IOPIN -416 -768 In
FLAG -432 -368 V-
IOPIN -432 -368 In
FLAG -64 -848 I
IOPIN -64 -848 Out
FLAG -64 -448 Q
IOPIN -64 -448 Out
SYMBOL opamp2 -416 -912 R0
SYMATTR InstName U2
SYMATTR Value LM4562
SYMBOL sw -2080 -672 R270
SYMATTR InstName S1
SYMATTR Value MYSW
SYMBOL sw -2080 -560 R270
SYMATTR InstName S2
SYMATTR Value MYSW
SYMBOL sw -2080 -448 R270
SYMATTR InstName S3
SYMATTR Value MYSW
SYMBOL sw -2080 -336 R270
SYMATTR InstName S4
SYMATTR Value MYSW
SYMBOL voltage -2224 -496 R90
WINDOW 0 -32 56 VBottom 2
WINDOW 3 32 56 VTop 2
WINDOW 123 118 56 VBottom 2
WINDOW 39 90 64 VBottom 2
SYMATTR InstName V4
SYMATTR Value SINE(0 5u {RF_Freq})
SYMATTR Value2 AC 1
SYMATTR SpiceLine Rser=50
SYMBOL voltage -2528 192 R0
WINDOW 123 0 0 Left 0
WINDOW 39 0 0 Left 0
SYMATTR InstName V7
SYMATTR Value PULSE(0 1 0 0.001p 0.001p {SW_time} {4*SW_time})
SYMBOL voltage -2528 384 R0
WINDOW 123 0 0 Left 0
WINDOW 39 0 0 Left 0
SYMATTR InstName V8
SYMATTR Value PULSE(0 1 {SW_time} 0.001p 0.001p {SW_time} {4*SW_time})
SYMBOL voltage -1712 192 R0
WINDOW 123 0 0 Left 0
WINDOW 39 0 0 Left 0
SYMATTR InstName V9
SYMATTR Value PULSE(0 1 {2*SW_time} 0.001p 0.001p {SW_time} {4*SW_time})
SYMBOL voltage -1712 384 R0
WINDOW 123 0 0 Left 0
WINDOW 39 0 0 Left 0
SYMATTR InstName V10
SYMATTR Value PULSE(0 1 {3*SW_time} 0.001p 0.001p {SW_time} {4*SW_time})
SYMBOL cap -768 -368 R180
WINDOW 0 24 56 Left 2
WINDOW 3 24 8 Left 2
SYMATTR InstName C1
SYMATTR Value 22n
SYMBOL cap -768 -176 R180
WINDOW 0 24 56 Left 2
WINDOW 3 24 8 Left 2
SYMATTR InstName C2
SYMATTR Value 4.35n
SYMBOL res -880 -480 R90
WINDOW 0 0 56 VBottom 2
WINDOW 3 32 56 VTop 2
SYMATTR InstName R4
SYMATTR Value 50
SYMBOL res -880 -288 R90
WINDOW 0 0 56 VBottom 2
WINDOW 3 32 56 VTop 2
SYMATTR InstName R5
SYMATTR Value 50
SYMBOL cap -896 -864 R180
WINDOW 0 24 56 Left 2
WINDOW 3 24 8 Left 2
SYMATTR InstName C3
SYMATTR Value 22n
SYMBOL cap -896 -672 R180
WINDOW 0 24 56 Left 2
WINDOW 3 24 8 Left 2
SYMATTR InstName C4
SYMATTR Value 4.35n
SYMBOL res -1008 -976 R90
WINDOW 0 0 56 VBottom 2
WINDOW 3 32 56 VTop 2
SYMATTR InstName R6
SYMATTR Value 50
SYMBOL res -1008 -784 R90
WINDOW 0 0 56 VBottom 2
WINDOW 3 32 56 VTop 2
SYMATTR InstName R7
SYMATTR Value 50
SYMBOL res -544 -880 R90
WINDOW 0 0 56 VBottom 2
WINDOW 3 32 56 VTop 2
SYMATTR InstName R8
SYMATTR Value 180
SYMBOL res -544 -992 R90
WINDOW 0 0 56 VBottom 2
WINDOW 3 32 56 VTop 2
SYMATTR InstName R9
SYMATTR Value 50k
SYMBOL cap -512 -960 R0
SYMATTR InstName C5
SYMATTR Value 15p
SYMBOL cap -192 -864 R90
WINDOW 0 0 32 VBottom 2
WINDOW 3 32 32 VTop 2
SYMATTR InstName C6
SYMATTR Value 10µ
SYMBOL opamp2 -432 -512 R0
SYMATTR InstName U1
SYMATTR Value LM4562
SYMBOL res -560 -480 R90
WINDOW 0 0 56 VBottom 2
WINDOW 3 32 56 VTop 2
SYMATTR InstName R10
SYMATTR Value 180
SYMBOL res -560 -592 R90
WINDOW 0 0 56 VBottom 2
WINDOW 3 32 56 VTop 2
SYMATTR InstName R11
SYMATTR Value 50k
SYMBOL cap -528 -560 R0
SYMATTR InstName C7
SYMATTR Value 15p
SYMBOL cap -208 -464 R90
WINDOW 0 0 32 VBottom 2
WINDOW 3 32 32 VTop 2
SYMATTR InstName C8
SYMATTR Value 10µ
SYMBOL voltage -336 -1328 R0
SYMATTR InstName V1
SYMATTR Value 4.3
SYMBOL cap -240 -1312 R0
SYMATTR InstName C9
SYMATTR Value 0.1µ
TEXT -80 -128 Left 2 !.inc LM4562Fixed.LIB
TEXT -2552 -240 Left 2 !.model MYSW SW(Vt=0.9 Vh=0 Ron=1 Roff=100G)
TEXT -1400 -112 Left 2 !.tran 0 0.25m 40u 5m\n;.ac dec 10 10 1000Meg;\n;.noise V(V_outQ) V3 dec 10 10 100meg\n;.op
TEXT -2552 -200 Left 2 !.param RF_freq=10Meg LO_freq={RF_freq - Audio_freq} LO_period={1/LO_freq} SW_time={LO_period/4}
TEXT -2568 64 Left 4 ;Signals for voltage-controlled switches \nused to simulate our multiplexer.
TEXT -2368 -576 Left 2 ;RF signal in
TEXT -2376 -800 Left 4 ;Multiplexer
TEXT -1408 -152 Left 4 ;Simulation Control
TEXT -1400 32 Left 2 !;step oct param Audio_freq 1000 10000 1
TEXT -1400 0 Left 2 !.param Audio_freq 10000
